<?xml version="1.0" encoding="UTF-8" standalone="yes"?>
<template encoding-version="1.3">
    <description></description>
    <groupId>8db64c94-018e-1000-f270-6b8aca3869f7</groupId>
    <name>Aviation Data Flow</name>
    <snippet>
        <connections>
            <id>171b4f17-c92e-3629-0000-000000000000</id>
            <parentGroupId>68bbea0c-a02a-3385-0000-000000000000</parentGroupId>
            <versionedComponentId>171b4f17-c92e-3629-8e71-8750449c712c</versionedComponentId>
            <backPressureDataSizeThreshold>1 GB</backPressureDataSizeThreshold>
            <backPressureObjectThreshold>10000</backPressureObjectThreshold>
            <bends>
                <x>392.0</x>
                <y>448.0</y>
            </bends>
            <destination>
                <groupId>68bbea0c-a02a-3385-0000-000000000000</groupId>
                <id>39717dbf-7f25-3ee2-0000-000000000000</id>
                <type>PROCESSOR</type>
                <versionedComponentId>39717dbf-7f25-3ee2-878f-af11c2787df2</versionedComponentId>
            </destination>
            <flowFileExpiration>0 sec</flowFileExpiration>
            <labelIndex>0</labelIndex>
            <loadBalanceCompression>DO_NOT_COMPRESS</loadBalanceCompression>
            <loadBalancePartitionAttribute></loadBalancePartitionAttribute>
            <loadBalanceStatus>LOAD_BALANCE_NOT_CONFIGURED</loadBalanceStatus>
            <loadBalanceStrategy>DO_NOT_LOAD_BALANCE</loadBalanceStrategy>
            <name></name>
            <selectedRelationships>success</selectedRelationships>
            <source>
                <groupId>68bbea0c-a02a-3385-0000-000000000000</groupId>
                <id>4ae418b7-1e4b-37ee-0000-000000000000</id>
                <type>PROCESSOR</type>
                <versionedComponentId>4ae418b7-1e4b-37ee-98b0-65156d9fe02e</versionedComponentId>
            </source>
            <zIndex>0</zIndex>
        </connections>
        <connections>
            <id>3364bf1c-0029-368b-0000-000000000000</id>
            <parentGroupId>68bbea0c-a02a-3385-0000-000000000000</parentGroupId>
            <versionedComponentId>3364bf1c-0029-368b-8155-fb566891601f</versionedComponentId>
            <backPressureDataSizeThreshold>1 GB</backPressureDataSizeThreshold>
            <backPressureObjectThreshold>10000</backPressureObjectThreshold>
            <bends>
                <x>984.0</x>
                <y>192.0</y>
            </bends>
            <destination>
                <groupId>68bbea0c-a02a-3385-0000-000000000000</groupId>
                <id>ac6da54c-e887-354b-0000-000000000000</id>
                <type>PROCESSOR</type>
                <versionedComponentId>ac6da54c-e887-354b-b772-83522b3ea69c</versionedComponentId>
            </destination>
            <flowFileExpiration>0 sec</flowFileExpiration>
            <labelIndex>1</labelIndex>
            <loadBalanceCompression>DO_NOT_COMPRESS</loadBalanceCompression>
            <loadBalancePartitionAttribute></loadBalancePartitionAttribute>
            <loadBalanceStatus>LOAD_BALANCE_NOT_CONFIGURED</loadBalanceStatus>
            <loadBalanceStrategy>DO_NOT_LOAD_BALANCE</loadBalanceStrategy>
            <name></name>
            <selectedRelationships>success</selectedRelationships>
            <source>
                <groupId>68bbea0c-a02a-3385-0000-000000000000</groupId>
                <id>988bc67c-b929-39a9-0000-000000000000</id>
                <type>PROCESSOR</type>
                <versionedComponentId>988bc67c-b929-39a9-96a3-fda7448bad06</versionedComponentId>
            </source>
            <zIndex>0</zIndex>
        </connections>
        <connections>
            <id>3eb013e7-3b56-3c7e-0000-000000000000</id>
            <parentGroupId>68bbea0c-a02a-3385-0000-000000000000</parentGroupId>
            <versionedComponentId>3eb013e7-3b56-3c7e-b8c5-5d673b79ac2a</versionedComponentId>
            <backPressureDataSizeThreshold>1 GB</backPressureDataSizeThreshold>
            <backPressureObjectThreshold>10000</backPressureObjectThreshold>
            <bends>
                <x>856.0</x>
                <y>432.0</y>
            </bends>
            <destination>
                <groupId>68bbea0c-a02a-3385-0000-000000000000</groupId>
                <id>4ae418b7-1e4b-37ee-0000-000000000000</id>
                <type>PROCESSOR</type>
                <versionedComponentId>4ae418b7-1e4b-37ee-98b0-65156d9fe02e</versionedComponentId>
            </destination>
            <flowFileExpiration>0 sec</flowFileExpiration>
            <labelIndex>0</labelIndex>
            <loadBalanceCompression>DO_NOT_COMPRESS</loadBalanceCompression>
            <loadBalancePartitionAttribute></loadBalancePartitionAttribute>
            <loadBalanceStatus>LOAD_BALANCE_NOT_CONFIGURED</loadBalanceStatus>
            <loadBalanceStrategy>DO_NOT_LOAD_BALANCE</loadBalanceStrategy>
            <name></name>
            <selectedRelationships>split</selectedRelationships>
            <source>
                <groupId>68bbea0c-a02a-3385-0000-000000000000</groupId>
                <id>ac6da54c-e887-354b-0000-000000000000</id>
                <type>PROCESSOR</type>
                <versionedComponentId>ac6da54c-e887-354b-b772-83522b3ea69c</versionedComponentId>
            </source>
            <zIndex>0</zIndex>
        </connections>
        <connections>
            <id>58bf6092-b254-3c4d-0000-000000000000</id>
            <parentGroupId>68bbea0c-a02a-3385-0000-000000000000</parentGroupId>
            <versionedComponentId>58bf6092-b254-3c4d-91f7-84f2e41aca0c</versionedComponentId>
            <backPressureDataSizeThreshold>1 GB</backPressureDataSizeThreshold>
            <backPressureObjectThreshold>10000</backPressureObjectThreshold>
            <bends>
                <x>136.0</x>
                <y>472.0</y>
            </bends>
            <destination>
                <groupId>68bbea0c-a02a-3385-0000-000000000000</groupId>
                <id>d9e3eae0-5ea5-3d2b-0000-000000000000</id>
                <type>PROCESSOR</type>
                <versionedComponentId>d9e3eae0-5ea5-3d2b-88d3-7b0576111b50</versionedComponentId>
            </destination>
            <flowFileExpiration>0 sec</flowFileExpiration>
            <labelIndex>0</labelIndex>
            <loadBalanceCompression>DO_NOT_COMPRESS</loadBalanceCompression>
            <loadBalancePartitionAttribute></loadBalancePartitionAttribute>
            <loadBalanceStatus>LOAD_BALANCE_NOT_CONFIGURED</loadBalanceStatus>
            <loadBalanceStrategy>DO_NOT_LOAD_BALANCE</loadBalanceStrategy>
            <name></name>
            <selectedRelationships>sql</selectedRelationships>
            <source>
                <groupId>68bbea0c-a02a-3385-0000-000000000000</groupId>
                <id>39717dbf-7f25-3ee2-0000-000000000000</id>
                <type>PROCESSOR</type>
                <versionedComponentId>39717dbf-7f25-3ee2-878f-af11c2787df2</versionedComponentId>
            </source>
            <zIndex>0</zIndex>
        </connections>
        <connections>
            <id>5b5e0162-fcc3-300e-0000-000000000000</id>
            <parentGroupId>68bbea0c-a02a-3385-0000-000000000000</parentGroupId>
            <versionedComponentId>5b5e0162-fcc3-300e-922f-39a4a8e25fff</versionedComponentId>
            <backPressureDataSizeThreshold>1 GB</backPressureDataSizeThreshold>
            <backPressureObjectThreshold>10000</backPressureObjectThreshold>
            <bends>
                <x>400.0</x>
                <y>208.0</y>
            </bends>
            <destination>
                <groupId>68bbea0c-a02a-3385-0000-000000000000</groupId>
                <id>940b8ac1-22c9-39d4-0000-000000000000</id>
                <type>PROCESSOR</type>
                <versionedComponentId>940b8ac1-22c9-39d4-ab6b-f8dd6f1d666d</versionedComponentId>
            </destination>
            <flowFileExpiration>0 sec</flowFileExpiration>
            <labelIndex>0</labelIndex>
            <loadBalanceCompression>DO_NOT_COMPRESS</loadBalanceCompression>
            <loadBalancePartitionAttribute></loadBalancePartitionAttribute>
            <loadBalanceStatus>LOAD_BALANCE_NOT_CONFIGURED</loadBalanceStatus>
            <loadBalanceStrategy>DO_NOT_LOAD_BALANCE</loadBalanceStrategy>
            <name></name>
            <selectedRelationships>success</selectedRelationships>
            <source>
                <groupId>68bbea0c-a02a-3385-0000-000000000000</groupId>
                <id>0e10fc75-03f8-3c09-0000-000000000000</id>
                <type>PROCESSOR</type>
                <versionedComponentId>0e10fc75-03f8-3c09-9fe2-3cf832f3133e</versionedComponentId>
            </source>
            <zIndex>0</zIndex>
        </connections>
        <connections>
            <id>7a2db33e-b1af-3e37-0000-000000000000</id>
            <parentGroupId>68bbea0c-a02a-3385-0000-000000000000</parentGroupId>
            <versionedComponentId>7a2db33e-b1af-3e37-9c37-59e01567011e</versionedComponentId>
            <backPressureDataSizeThreshold>1 GB</backPressureDataSizeThreshold>
            <backPressureObjectThreshold>10000</backPressureObjectThreshold>
            <bends>
                <x>696.0</x>
                <y>184.0</y>
            </bends>
            <destination>
                <groupId>68bbea0c-a02a-3385-0000-000000000000</groupId>
                <id>ac6da54c-e887-354b-0000-000000000000</id>
                <type>PROCESSOR</type>
                <versionedComponentId>ac6da54c-e887-354b-b772-83522b3ea69c</versionedComponentId>
            </destination>
            <flowFileExpiration>0 sec</flowFileExpiration>
            <labelIndex>0</labelIndex>
            <loadBalanceCompression>DO_NOT_COMPRESS</loadBalanceCompression>
            <loadBalancePartitionAttribute></loadBalancePartitionAttribute>
            <loadBalanceStatus>LOAD_BALANCE_NOT_CONFIGURED</loadBalanceStatus>
            <loadBalanceStrategy>DO_NOT_LOAD_BALANCE</loadBalanceStrategy>
            <name></name>
            <selectedRelationships>Response</selectedRelationships>
            <source>
                <groupId>68bbea0c-a02a-3385-0000-000000000000</groupId>
                <id>940b8ac1-22c9-39d4-0000-000000000000</id>
                <type>PROCESSOR</type>
                <versionedComponentId>940b8ac1-22c9-39d4-ab6b-f8dd6f1d666d</versionedComponentId>
            </source>
            <zIndex>0</zIndex>
        </connections>
        <connections>
            <id>98ed469a-ec5b-3930-0000-000000000000</id>
            <parentGroupId>68bbea0c-a02a-3385-0000-000000000000</parentGroupId>
            <versionedComponentId>98ed469a-ec5b-3930-a876-4c48419168c1</versionedComponentId>
            <backPressureDataSizeThreshold>1 GB</backPressureDataSizeThreshold>
            <backPressureObjectThreshold>10000</backPressureObjectThreshold>
            <bends>
                <x>1040.0</x>
                <y>512.0</y>
            </bends>
            <destination>
                <groupId>68bbea0c-a02a-3385-0000-000000000000</groupId>
                <id>05977f4b-addb-3119-0000-000000000000</id>
                <type>PROCESSOR</type>
                <versionedComponentId>05977f4b-addb-3119-82c2-57f769b6570f</versionedComponentId>
            </destination>
            <flowFileExpiration>0 sec</flowFileExpiration>
            <labelIndex>0</labelIndex>
            <loadBalanceCompression>DO_NOT_COMPRESS</loadBalanceCompression>
            <loadBalancePartitionAttribute></loadBalancePartitionAttribute>
            <loadBalanceStatus>LOAD_BALANCE_NOT_CONFIGURED</loadBalanceStatus>
            <loadBalanceStrategy>DO_NOT_LOAD_BALANCE</loadBalanceStrategy>
            <name></name>
            <selectedRelationships>split</selectedRelationships>
            <source>
                <groupId>68bbea0c-a02a-3385-0000-000000000000</groupId>
                <id>ac6da54c-e887-354b-0000-000000000000</id>
                <type>PROCESSOR</type>
                <versionedComponentId>ac6da54c-e887-354b-b772-83522b3ea69c</versionedComponentId>
            </source>
            <zIndex>0</zIndex>
        </connections>
        <connections>
            <id>b88beaf4-eb1f-3f90-0000-000000000000</id>
            <parentGroupId>68bbea0c-a02a-3385-0000-000000000000</parentGroupId>
            <versionedComponentId>b88beaf4-eb1f-3f90-9896-c07e072f48c4</versionedComponentId>
            <backPressureDataSizeThreshold>1 GB</backPressureDataSizeThreshold>
            <backPressureObjectThreshold>10000</backPressureObjectThreshold>
            <bends>
                <x>1232.0</x>
                <y>192.0</y>
            </bends>
            <destination>
                <groupId>68bbea0c-a02a-3385-0000-000000000000</groupId>
                <id>988bc67c-b929-39a9-0000-000000000000</id>
                <type>PROCESSOR</type>
                <versionedComponentId>988bc67c-b929-39a9-96a3-fda7448bad06</versionedComponentId>
            </destination>
            <flowFileExpiration>0 sec</flowFileExpiration>
            <labelIndex>0</labelIndex>
            <loadBalanceCompression>DO_NOT_COMPRESS</loadBalanceCompression>
            <loadBalancePartitionAttribute></loadBalancePartitionAttribute>
            <loadBalanceStatus>LOAD_BALANCE_NOT_CONFIGURED</loadBalanceStatus>
            <loadBalanceStrategy>DO_NOT_LOAD_BALANCE</loadBalanceStrategy>
            <name></name>
            <selectedRelationships>original</selectedRelationships>
            <source>
                <groupId>68bbea0c-a02a-3385-0000-000000000000</groupId>
                <id>ac6da54c-e887-354b-0000-000000000000</id>
                <type>PROCESSOR</type>
                <versionedComponentId>ac6da54c-e887-354b-b772-83522b3ea69c</versionedComponentId>
            </source>
            <zIndex>0</zIndex>
        </connections>
        <connections>
            <id>c53f1007-b433-3ea6-0000-000000000000</id>
            <parentGroupId>68bbea0c-a02a-3385-0000-000000000000</parentGroupId>
            <versionedComponentId>c53f1007-b433-3ea6-a879-2648ef85de76</versionedComponentId>
            <backPressureDataSizeThreshold>1 GB</backPressureDataSizeThreshold>
            <backPressureObjectThreshold>10000</backPressureObjectThreshold>
            <bends>
                <x>320.0</x>
                <y>704.0</y>
            </bends>
            <bends>
                <x>344.0</x>
                <y>712.0</y>
            </bends>
            <destination>
                <groupId>68bbea0c-a02a-3385-0000-000000000000</groupId>
                <id>d9e3eae0-5ea5-3d2b-0000-000000000000</id>
                <type>PROCESSOR</type>
                <versionedComponentId>d9e3eae0-5ea5-3d2b-88d3-7b0576111b50</versionedComponentId>
            </destination>
            <flowFileExpiration>0 sec</flowFileExpiration>
            <labelIndex>1</labelIndex>
            <loadBalanceCompression>DO_NOT_COMPRESS</loadBalanceCompression>
            <loadBalancePartitionAttribute></loadBalancePartitionAttribute>
            <loadBalanceStatus>LOAD_BALANCE_NOT_CONFIGURED</loadBalanceStatus>
            <loadBalanceStrategy>DO_NOT_LOAD_BALANCE</loadBalanceStrategy>
            <name></name>
            <selectedRelationships>retry</selectedRelationships>
            <source>
                <groupId>68bbea0c-a02a-3385-0000-000000000000</groupId>
                <id>d9e3eae0-5ea5-3d2b-0000-000000000000</id>
                <type>PROCESSOR</type>
                <versionedComponentId>d9e3eae0-5ea5-3d2b-88d3-7b0576111b50</versionedComponentId>
            </source>
            <zIndex>0</zIndex>
        </connections>
        <controllerServices>
            <id>62092c39-1b97-3df8-0000-000000000000</id>
            <parentGroupId>68bbea0c-a02a-3385-0000-000000000000</parentGroupId>
            <versionedComponentId>62092c39-1b97-3df8-b4ce-84bd6d5c79cb</versionedComponentId>
            <bulletinLevel>WARN</bulletinLevel>
            <bundle>
                <artifact>nifi-dbcp-service-nar</artifact>
                <group>org.apache.nifi</group>
                <version>1.25.0</version>
            </bundle>
            <comments></comments>
            <descriptors>
                <entry>
                    <key>Database Connection URL</key>
                    <value>
                        <name>Database Connection URL</name>
                    </value>
                </entry>
                <entry>
                    <key>Database Driver Class Name</key>
                    <value>
                        <name>Database Driver Class Name</name>
                    </value>
                </entry>
                <entry>
                    <key>database-driver-locations</key>
                    <value>
                        <name>database-driver-locations</name>
                    </value>
                </entry>
                <entry>
                    <key>kerberos-user-service</key>
                    <value>
                        <identifiesControllerService>org.apache.nifi.kerberos.KerberosUserService</identifiesControllerService>
                        <name>kerberos-user-service</name>
                    </value>
                </entry>
                <entry>
                    <key>kerberos-credentials-service</key>
                    <value>
                        <identifiesControllerService>org.apache.nifi.kerberos.KerberosCredentialsService</identifiesControllerService>
                        <name>kerberos-credentials-service</name>
                    </value>
                </entry>
                <entry>
                    <key>kerberos-principal</key>
                    <value>
                        <name>kerberos-principal</name>
                    </value>
                </entry>
                <entry>
                    <key>kerberos-password</key>
                    <value>
                        <name>kerberos-password</name>
                    </value>
                </entry>
                <entry>
                    <key>Database User</key>
                    <value>
                        <name>Database User</name>
                    </value>
                </entry>
                <entry>
                    <key>Password</key>
                    <value>
                        <name>Password</name>
                    </value>
                </entry>
                <entry>
                    <key>Max Wait Time</key>
                    <value>
                        <name>Max Wait Time</name>
                    </value>
                </entry>
                <entry>
                    <key>Max Total Connections</key>
                    <value>
                        <name>Max Total Connections</name>
                    </value>
                </entry>
                <entry>
                    <key>Validation-query</key>
                    <value>
                        <name>Validation-query</name>
                    </value>
                </entry>
                <entry>
                    <key>dbcp-min-idle-conns</key>
                    <value>
                        <name>dbcp-min-idle-conns</name>
                    </value>
                </entry>
                <entry>
                    <key>dbcp-max-idle-conns</key>
                    <value>
                        <name>dbcp-max-idle-conns</name>
                    </value>
                </entry>
                <entry>
                    <key>dbcp-max-conn-lifetime</key>
                    <value>
                        <name>dbcp-max-conn-lifetime</name>
                    </value>
                </entry>
                <entry>
                    <key>dbcp-time-between-eviction-runs</key>
                    <value>
                        <name>dbcp-time-between-eviction-runs</name>
                    </value>
                </entry>
                <entry>
                    <key>dbcp-min-evictable-idle-time</key>
                    <value>
                        <name>dbcp-min-evictable-idle-time</name>
                    </value>
                </entry>
                <entry>
                    <key>dbcp-soft-min-evictable-idle-time</key>
                    <value>
                        <name>dbcp-soft-min-evictable-idle-time</name>
                    </value>
                </entry>
            </descriptors>
            <name>MySQLConnection</name>
            <persistsState>false</persistsState>
            <properties>
                <entry>
                    <key>Database Connection URL</key>
                    <value>jdbc:mysql://localhost:3306/dataflow?useUnicode=true&amp;useJDBCCompliantTimezoneShift=true&amp;useLegacyDatetimeCode=false&amp;serverTimezone=UTC</value>
                </entry>
                <entry>
                    <key>Database Driver Class Name</key>
                    <value>com.mysql.cj.jdbc.Driver</value>
                </entry>
                <entry>
                    <key>database-driver-locations</key>
                    <value>\Users\pc\Desktop\yosra\Projet\ETL\nifi-1.25.0\lib</value>
                </entry>
                <entry>
                    <key>kerberos-user-service</key>
                </entry>
                <entry>
                    <key>kerberos-credentials-service</key>
                </entry>
                <entry>
                    <key>kerberos-principal</key>
                </entry>
                <entry>
                    <key>kerberos-password</key>
                </entry>
                <entry>
                    <key>Database User</key>
                    <value>root</value>
                </entry>
                <entry>
                    <key>Password</key>
                </entry>
                <entry>
                    <key>Max Wait Time</key>
                    <value>500 millis</value>
                </entry>
                <entry>
                    <key>Max Total Connections</key>
                    <value>8</value>
                </entry>
                <entry>
                    <key>Validation-query</key>
                </entry>
                <entry>
                    <key>dbcp-min-idle-conns</key>
                    <value>0</value>
                </entry>
                <entry>
                    <key>dbcp-max-idle-conns</key>
                    <value>8</value>
                </entry>
                <entry>
                    <key>dbcp-max-conn-lifetime</key>
                    <value>-1</value>
                </entry>
                <entry>
                    <key>dbcp-time-between-eviction-runs</key>
                    <value>-1</value>
                </entry>
                <entry>
                    <key>dbcp-min-evictable-idle-time</key>
                    <value>30 mins</value>
                </entry>
                <entry>
                    <key>dbcp-soft-min-evictable-idle-time</key>
                    <value>-1</value>
                </entry>
            </properties>
            <state>ENABLED</state>
            <type>org.apache.nifi.dbcp.DBCPConnectionPool</type>
        </controllerServices>
        <processors>
            <id>05977f4b-addb-3119-0000-000000000000</id>
            <parentGroupId>68bbea0c-a02a-3385-0000-000000000000</parentGroupId>
            <position>
                <x>776.0</x>
                <y>568.0</y>
            </position>
            <versionedComponentId>05977f4b-addb-3119-82c2-57f769b6570f</versionedComponentId>
            <bundle>
                <artifact>nifi-mongodb-nar</artifact>
                <group>org.apache.nifi</group>
                <version>1.25.0</version>
            </bundle>
            <config>
                <backoffMechanism>PENALIZE_FLOWFILE</backoffMechanism>
                <bulletinLevel>WARN</bulletinLevel>
                <comments></comments>
                <concurrentlySchedulableTaskCount>1</concurrentlySchedulableTaskCount>
                <descriptors>
                    <entry>
                        <key>mongo-client-service</key>
                        <value>
                            <identifiesControllerService>org.apache.nifi.mongodb.MongoDBClientService</identifiesControllerService>
                            <name>mongo-client-service</name>
                        </value>
                    </entry>
                    <entry>
                        <key>Mongo URI</key>
                        <value>
                            <name>Mongo URI</name>
                        </value>
                    </entry>
                    <entry>
                        <key>Mongo Database Name</key>
                        <value>
                            <name>Mongo Database Name</name>
                        </value>
                    </entry>
                    <entry>
                        <key>Mongo Collection Name</key>
                        <value>
                            <name>Mongo Collection Name</name>
                        </value>
                    </entry>
                    <entry>
                        <key>ssl-context-service</key>
                        <value>
                            <identifiesControllerService>org.apache.nifi.ssl.SSLContextService</identifiesControllerService>
                            <name>ssl-context-service</name>
                        </value>
                    </entry>
                    <entry>
                        <key>ssl-client-auth</key>
                        <value>
                            <name>ssl-client-auth</name>
                        </value>
                    </entry>
                    <entry>
                        <key>Mode</key>
                        <value>
                            <name>Mode</name>
                        </value>
                    </entry>
                    <entry>
                        <key>Upsert</key>
                        <value>
                            <name>Upsert</name>
                        </value>
                    </entry>
                    <entry>
                        <key>Update Query Key</key>
                        <value>
                            <name>Update Query Key</name>
                        </value>
                    </entry>
                    <entry>
                        <key>putmongo-update-query</key>
                        <value>
                            <name>putmongo-update-query</name>
                        </value>
                    </entry>
                    <entry>
                        <key>put-mongo-update-mode</key>
                        <value>
                            <name>put-mongo-update-mode</name>
                        </value>
                    </entry>
                    <entry>
                        <key>Write Concern</key>
                        <value>
                            <name>Write Concern</name>
                        </value>
                    </entry>
                    <entry>
                        <key>Character Set</key>
                        <value>
                            <name>Character Set</name>
                        </value>
                    </entry>
                </descriptors>
                <executionNode>ALL</executionNode>
                <lossTolerant>false</lossTolerant>
                <maxBackoffPeriod>10 mins</maxBackoffPeriod>
                <penaltyDuration>30 sec</penaltyDuration>
                <properties>
                    <entry>
                        <key>mongo-client-service</key>
                    </entry>
                    <entry>
                        <key>Mongo URI</key>
                        <value>mongodb://localhost:27017/</value>
                    </entry>
                    <entry>
                        <key>Mongo Database Name</key>
                        <value>dataflow</value>
                    </entry>
                    <entry>
                        <key>Mongo Collection Name</key>
                        <value>flight</value>
                    </entry>
                    <entry>
                        <key>ssl-context-service</key>
                    </entry>
                    <entry>
                        <key>ssl-client-auth</key>
                        <value>REQUIRED</value>
                    </entry>
                    <entry>
                        <key>Mode</key>
                        <value>insert</value>
                    </entry>
                    <entry>
                        <key>Upsert</key>
                        <value>false</value>
                    </entry>
                    <entry>
                        <key>Update Query Key</key>
                    </entry>
                    <entry>
                        <key>putmongo-update-query</key>
                    </entry>
                    <entry>
                        <key>put-mongo-update-mode</key>
                        <value>doc</value>
                    </entry>
                    <entry>
                        <key>Write Concern</key>
                        <value>ACKNOWLEDGED</value>
                    </entry>
                    <entry>
                        <key>Character Set</key>
                        <value>UTF-8</value>
                    </entry>
                </properties>
                <retryCount>10</retryCount>
                <runDurationMillis>0</runDurationMillis>
                <schedulingPeriod>0 sec</schedulingPeriod>
                <schedulingStrategy>TIMER_DRIVEN</schedulingStrategy>
                <yieldDuration>1 sec</yieldDuration>
            </config>
            <executionNodeRestricted>false</executionNodeRestricted>
            <name>PutMongo</name>
            <relationships>
                <autoTerminate>true</autoTerminate>
                <name>failure</name>